tests/fuzzer/corpus_json/21_random_013.json
{
  "version": "1.0",
  "type": "input",
  "is_batch": false,
  "attributes": {},
  "data": {
    "node": [
      {
        "id": 0,
        "u_rated": 10000.0
      },
      {
        "id": 1,
        "u_rated": 10000.0
      },
      {
        "id": 2,
        "u_rated": 10000.0
      },
      {
        "id": 3,
        "u_rated": 10000.0
      },
      {
        "id": 4,
        "u_rated": 10000.0
      },
      {
        "id": 5,
        "u_rated": 10000.0
      }
    ],
    "source": [
      {
        "id": 6,
        "node": 0,
        "status": 1,
        "u_ref": 1.0368163836032223,
        "u_ref_angle": 0.0,
        "sk": 685289467.1652405,
        "rx_ratio": 0.4246680806949651,
        "z01_ratio": 1.0
      },
      {
        "id": 7,
        "node": 5,
        "status": 1,
        "u_ref": 1.0,
        "u_ref_angle": 0.0,
        "sk": 230635553.10457155,
        "rx_ratio": 0.1,
        "z01_ratio": 1.0
      }
    ],
    "line": [
      {
        "id": 8,
        "from_node": 0,
        "to_node": 1,
        "from_status": 1,
        "to_status": 1,
        "r1": 0.7357995908420889,
        "x1": 1.1258146778105633,
        "c1": 7.340236022127729e-07,
        "tan1": 0.0,
        "r0": 0.3,
        "x0": 0.3,
        "c0": 1e-09,
        "tan0": 0.0,
        "i_n": 138.91089253215932
      },
      {
        "id": 9,
        "from_node": 1,
        "to_node": 2,
        "from_status": 1,
        "to_status": 1,
        "r1": 2.6565737592350915,
        "x1": 1.0695376524587035,
        "c1": 2.946567537633625e-07,
        "tan1": 0.0,
        "r0": 0.3,
        "x0": 0.3,
        "c0": 1e-09,
        "tan0": 0.0,
        "i_n": 437.26452510829046
      },
      {
        "id": 10,
        "from_node": 2,
        "to_node": 3,
        "from_status": 1,
        "to_status": 1,
        "r1": 4.18828255251649,
        "x1": 3.042010739371432,
        "c1": 1.4432392962091865e-08,
        "tan1": 0.0,
        "r0": 0.3,
        "x0": 0.3,
        "c0": 1e-09,
        "tan0": 0.0,
        "i_n": 283.0784853997651
      },
      {
        "id": 11,
        "from_node": 3,
        "to_node": 4,
        "from_status": 1,
        "to_status": 1,
        "r1": 0.7335516097005729,
        "x1": 4.356423645992199,
        "c1": 8.097396112110605e-07,
        "tan1": 0.0,
        "r0": 0.3,
        "x0": 0.3,
        "c0": 1e-09,
        "tan0": 0.0,
        "i_n": 807.9863696532386
      },
      {
        "id": 12,
        "from_node": 4,
        "to_node": 5,
        "from_status": 1,
        "to_status": 1,
        "r1": 4.131826700682412,
        "x1": 3.723750764011038,
        "c1": 9.493234167956348e-07,
        "tan1": 0.0,
        "r0": 0.3,
        "x0": 0.3,
        "c0": 1e-09,
        "tan0": 0.0,
        "i_n": 795.8328452575549
      }
    ],
    "sym_load": [
      {
        "id": 13,
        "node": 1,
        "status": 1,
        "type": 0,
        "p_specified": -2642.901393412365,
        "q_specified": 5100.077025548022
      },
      {
        "id": 14,
        "node": 2,
        "status": 1,
        "type": 1,
        "p_specified": 34145.6657114664,
        "q_specified": 7772.5877508256235
      },
      {
        "id": 15,
        "node": 5,
        "status": 1,
        "type": 2,
        "p_specified": 59651.72742871157,
        "q_specified": 9713.623711897402
      }
    ]
  }
}